<?xml version='1.0' encoding='utf-8'?>
<routes xmlns:xsi="http://www.w3.org/2001/XMLSchema-instance" xsi:noNamespaceSchemaLocation="http://sumo.dlr.de/xsd/routes_file.xsd"><trip id="ctrl_18" depart="0.06" from="-E2" to="E2" /><trip id="ctrl_4" depart="0.22" from="E1" to="E9" /><trip id="ctrl_2" depart="0.28" from="E0" to="E1" /><trip id="ctrl_5" depart="0.29" from="-E5" to="E10" /><trip id="ctrl_8" depart="1.00" from="-E4" to="-E7" /><trip id="ctrl_0" depart="1.34" from="-E11" to="E11" /><trip id="ctrl_30" depart="1.60" from="-E7" to="E10" /><trip id="ctrl_11" depart="1.73" from="E3" to="E8" /><trip id="ctrl_24" depart="1.77" from="-E10" to="E3" /><trip id="ctrl_17" depart="2.27" from="E5" to="E9" /><trip id="ctrl_28" depart="2.69" from="E5" to="-E3" /><trip id="ctrl_9" depart="2.84" from="E0" to="E4" /><trip id="ctrl_29" depart="3.44" from="-E10" to="-E3" /><trip id="ctrl_7" depart="3.46" from="E3" to="E6" /><trip id="ctrl_22" depart="3.46" from="-E8" to="E10" /><trip id="ctrl_21" depart="4.13" from="-E9" to="E1" /><trip id="ctrl_27" depart="4.53" from="-E6" to="-E5" /><trip id="ctrl_14" depart="5.21" from="-E1" to="-E7" /><trip id="ctrl_16" depart="5.78" from="-E3" to="E2" /><trip id="ctrl_23" depart="6.00" from="-E5" to="E6" /><trip id="ctrl_3" depart="6.07" from="-E8" to="-E0" /><trip id="ctrl_13" depart="6.64" from="-E11" to="-E3" /><trip id="ctrl_15" depart="7.03" from="E5" to="E4" /><trip id="ctrl_31" depart="7.03" from="-E11" to="-E0" /><trip id="ctrl_1" depart="7.61" from="-E11" to="E11" /><trip id="ctrl_12" depart="7.76" from="-E10" to="E10" /><trip id="ctrl_19" depart="7.77" from="-E4" to="E1" /><trip id="ctrl_25" depart="7.97" from="-E6" to="-E1" /><trip id="ctrl_26" depart="8.42" from="-E10" to="-E0" /><trip id="ctrl_10" depart="8.53" from="E1" to="E7" /><trip id="ctrl_6" depart="9.39" from="E3" to="-E5" /><trip id="ctrl_20" depart="9.50" from="-E4" to="E2" /></routes>