<?xml version='1.0' encoding='utf-8'?>
<routes xmlns:xsi="http://www.w3.org/2001/XMLSchema-instance" xsi:noNamespaceSchemaLocation="http://sumo.dlr.de/xsd/routes_file.xsd"><vehicle id="ctrl_18" depart="0.06"><route edges="-E2 -E1 E3 -E7 -E5 E2" /></vehicle><vehicle id="ctrl_4" depart="0.22"><route edges="E1 E5 E7 E9" /></vehicle><vehicle id="ctrl_2" depart="0.28"><route edges="E0 E1" /></vehicle><vehicle id="ctrl_5" depart="0.29"><route edges="-E5 -E1 E3 -E7 E10" /></vehicle><vehicle id="ctrl_8" depart="1.00"><route edges="-E4 E3 -E7" /></vehicle><vehicle id="ctrl_0" depart="1.34"><route edges="-E11 -E5 -E1 E3 -E7 E11" /></vehicle><vehicle id="ctrl_30" depart="1.60"><route edges="-E7 E10" /></vehicle><vehicle id="ctrl_11" depart="1.73"><route edges="E3 E8" /></vehicle><vehicle id="ctrl_24" depart="1.77"><route edges="-E10 -E5 -E1 E3" /></vehicle><vehicle id="ctrl_17" depart="2.27"><route edges="E5 E7 E9" /></vehicle><vehicle id="ctrl_28" depart="2.69"><route edges="E5 E7 -E3" /></vehicle><vehicle id="ctrl_9" depart="2.84"><route edges="E0 E4" /></vehicle><vehicle id="ctrl_29" depart="3.44"><route edges="-E10 E7 -E3" /></vehicle><vehicle id="ctrl_7" depart="3.46"><route edges="E3 -E7 -E5 E6" /></vehicle><vehicle id="ctrl_22" depart="3.46"><route edges="-E8 -E7 E10" /></vehicle><vehicle id="ctrl_21" depart="4.13"><route edges="-E9 -E3 E1" /></vehicle><vehicle id="ctrl_27" depart="4.53"><route edges="-E6 -E1 E3 -E7 -E5" /></vehicle><vehicle id="ctrl_14" depart="5.21"><route edges="-E1 E3 -E7" /></vehicle><vehicle id="ctrl_16" depart="5.78"><route edges="-E3 E1 E2" /></vehicle><vehicle id="ctrl_23" depart="6.00"><route edges="-E5 E6" /></vehicle><vehicle id="ctrl_3" depart="6.07"><route edges="-E8 -E3 -E0" /></vehicle><vehicle id="ctrl_13" depart="6.64"><route edges="-E11 E7 -E3" /></vehicle><vehicle id="ctrl_15" depart="7.03"><route edges="E5 E7 -E3 E4" /></vehicle><vehicle id="ctrl_31" depart="7.03"><route edges="-E11 -E5 -E1 -E0" /></vehicle><vehicle id="ctrl_1" depart="7.61"><route edges="-E11 -E5 -E1 E3 -E7 E11" /></vehicle><vehicle id="ctrl_12" depart="7.76"><route edges="-E10 -E5 -E1 E3 -E7 E10" /></vehicle><vehicle id="ctrl_19" depart="7.77"><route edges="-E4 E1" /></vehicle><vehicle id="ctrl_25" depart="7.97"><route edges="-E6 -E1" /></vehicle><vehicle id="ctrl_26" depart="8.42"><route edges="-E10 -E5 -E1 -E0" /></vehicle><vehicle id="ctrl_10" depart="8.53"><route edges="E1 E5 E7" /></vehicle><vehicle id="ctrl_6" depart="9.39"><route edges="E3 -E7 -E5" /></vehicle><vehicle id="ctrl_20" depart="9.50"><route edges="-E4 E1 E2" /></vehicle></routes>