<configuration>
  <input>
    <net-file value="../../../4by4_map/final_map.net.xml"/>
    <!-- High demand: ~1406 veh/hour (period=2.56s) -->
    <route-files value="controlled_init.rou.xml,../../../4by4_map/wardrop_routes_high.rou.xml"/>
  </input>

  <processing>
    <time-to-teleport value="300"/>
    <ignore-junction-blocker value="1"/>
  </processing>

  <time>
    <begin value="0"/>
    <end value="3600"/>
    <step-length value="1.0"/>
  </time>
</configuration>
